pcf
* control data
restart  estimation
3249 6377 8 0 7
     1     1 single  point  1   0   0 
10.0  -20.0  0.3  0.03 -100 0 run_slow_fac=20.0 lamforgive derforgive
 10.0  10.0  0.001
 0.1 5 noaui
 0  0.005  4  4  0.005  4
 1  1  1 jcosaveitn parsaveitn rrfsave
* singular value decomposition
1
3249 5.0e-7
0
* parameter groups
 k1       relative    0.01  0.0  switch  2.0 parabolic
 k2       relative    0.01  0.0  switch  2.0 parabolic
 k3       relative    0.01  0.0  switch  2.0 parabolic
 upflow   relative    0.01  0.0  switch  2.0 parabolic
 por      relative    0.03  0.0  switch  2.0 parabolic
 rech     relative    0.05  0.0  switch  2.0 parabolic
 heat     relative    0.01  0.0  switch  2.0 parabolic
 rpcap    relative    0.05  0.0  switch  2.0 parabolic
* parameter data
SRSO_10 log factor 8.156 0.01 50.0 upflow 1.0 0.0 1
SRSO_15 log factor 32.93 0.01 50.0 upflow 1.0 0.0 1
SRSO_20 log factor 18.06 0.01 50.0 upflow 1.0 0.0 1
SRSO_25 log factor 5.461 0.01 50.0 upflow 1.0 0.0 1
SRSO_30 log factor 1.413 0.01 50.0 upflow 1.0 0.0 1
SRSO_35 log factor 1.821 0.01 50.0 upflow 1.0 0.0 1
SRSO_40 log factor 0.9855 0.01 50.0 upflow 1.0 0.0 1
SRSO_45 log factor 1.063 0.01 50.0 upflow 1.0 0.0 1
SRSO_50 log factor 1.155 0.01 50.0 upflow 1.0 0.0 1
SRSO_55 log factor 0.7356 0.01 50.0 upflow 1.0 0.0 1
SRSO_70 log factor 0.0108 0.01 50.0 upflow 1.0 0.0 1
SRSO_75 log factor 0.1386 0.01 50.0 upflow 1.0 0.0 1
SRSO_80 log factor 2.306 0.01 50.0 upflow 1.0 0.0 1
SRSO_85 log factor 2.481 0.01 50.0 upflow 1.0 0.0 1
SRSO_90 log factor 1.294 0.01 50.0 upflow 1.0 0.0 1
SRSO_95 log factor 1.839 0.01 50.0 upflow 1.0 0.0 1
SRSO100 log factor 9.03 0.01 50.0 upflow 1.0 0.0 1
SRSO105 log factor 34.14 0.01 50.0 upflow 1.0 0.0 1
SRSO110 log factor 8.093 0.01 50.0 upflow 1.0 0.0 1
SRSO115 log factor 3.507 0.01 50.0 upflow 1.0 0.0 1
SRSO120 log factor 1.329 0.01 50.0 upflow 1.0 0.0 1
SRSO125 log factor 1.398 0.01 50.0 upflow 1.0 0.0 1
SRSO130 log factor 1.317 0.01 50.0 upflow 1.0 0.0 1
SRSO135 log factor 1.319 0.01 50.0 upflow 1.0 0.0 1
SRSO140 log factor 1.128 0.01 50.0 upflow 1.0 0.0 1
SRSO145 log factor 0.6519 0.01 50.0 upflow 1.0 0.0 1
SRSO157 log factor 0.0423 0.01 50.0 upflow 1.0 0.0 1
SRSO158 log factor 0.0314 0.01 50.0 upflow 1.0 0.0 1
SRSO161 log factor 0.03176 0.01 50.0 upflow 1.0 0.0 1
SRSO162 log factor 0.02953 0.01 50.0 upflow 1.0 0.0 1
SRSO163 log factor 0.01263 0.01 50.0 upflow 1.0 0.0 1
SRSO164 log factor 0.01346 0.01 50.0 upflow 1.0 0.0 1
SRSO166 log factor 0.3318 0.01 50.0 upflow 1.0 0.0 1
SRSO167 log factor 0.2415 0.01 50.0 upflow 1.0 0.0 1
SRSO168 log factor 0.1767 0.01 50.0 upflow 1.0 0.0 1
SRSO169 log factor 0.3002 0.01 50.0 upflow 1.0 0.0 1
SRSO171 log factor 0.4979 0.01 50.0 upflow 1.0 0.0 1
SRSO172 log factor 0.4038 0.01 50.0 upflow 1.0 0.0 1
SRSO173 log factor 0.4141 0.01 50.0 upflow 1.0 0.0 1
SRSO174 log factor 0.4646 0.01 50.0 upflow 1.0 0.0 1
SRSO175 log factor 4.058 0.01 50.0 upflow 1.0 0.0 1
SRSO180 log factor 1.594 0.01 50.0 upflow 1.0 0.0 1
SRSO185 log factor 2.327 0.01 50.0 upflow 1.0 0.0 1
SRSO190 log factor 3.369 0.01 50.0 upflow 1.0 0.0 1
SRSO195 log factor 26.44 0.01 50.0 upflow 1.0 0.0 1
SRSO200 log factor 20.97 0.01 50.0 upflow 1.0 0.0 1
SRSO205 log factor 9.376 0.01 50.0 upflow 1.0 0.0 1
SRSO210 log factor 1.368 0.01 50.0 upflow 1.0 0.0 1
SRSO215 log factor 1.208 0.01 50.0 upflow 1.0 0.0 1
SRSO220 log factor 0.914 0.01 50.0 upflow 1.0 0.0 1
SRSO225 log factor 0.5249 0.01 50.0 upflow 1.0 0.0 1
SRSO230 log factor 0.9746 0.01 50.0 upflow 1.0 0.0 1
SRSO235 log factor 0.4518 0.01 50.0 upflow 1.0 0.0 1
SRSO260 log factor 1.649 0.01 50.0 upflow 1.0 0.0 1
SRSO265 log factor 1.648 0.01 50.0 upflow 1.0 0.0 1
SRSO270 log factor 1.151 0.01 50.0 upflow 1.0 0.0 1
SRSO275 log factor 1.599 0.01 50.0 upflow 1.0 0.0 1
SRSO280 log factor 6.046 0.01 50.0 upflow 1.0 0.0 1
SRSO285 log factor 27.62 0.01 50.0 upflow 1.0 0.0 1
SRSO290 log factor 6.257 0.01 50.0 upflow 1.0 0.0 1
SRSO295 log factor 1.986 0.01 50.0 upflow 1.0 0.0 1
SRSO300 log factor 1.919 0.01 50.0 upflow 1.0 0.0 1
SRSO305 log factor 3.437 0.01 50.0 upflow 1.0 0.0 1
SRSO310 log factor 1.656 0.01 50.0 upflow 1.0 0.0 1
SRSO315 log factor 1.536 0.01 50.0 upflow 1.0 0.0 1
SRSO320 log factor 1.332 0.01 50.0 upflow 1.0 0.0 1
SRSO325 log factor 0.719 0.01 50.0 upflow 1.0 0.0 1
SRSO331 log factor 0.1959 0.01 50.0 upflow 1.0 0.0 1
SRSO332 log factor 2.633 0.01 50.0 upflow 1.0 0.0 1
SRSO333 log factor 1.885 0.01 50.0 upflow 1.0 0.0 1
SRSO334 log factor 0.03988 0.01 50.0 upflow 1.0 0.0 1
SRSO336 log factor 0.6679 0.01 50.0 upflow 1.0 0.0 1
SRSO337 log factor 2.112 0.01 50.0 upflow 1.0 0.0 1
SRSO338 log factor 0.183 0.01 50.0 upflow 1.0 0.0 1
SRSO339 log factor 0.1806 0.01 50.0 upflow 1.0 0.0 1
SRSO341 log factor 0.4194 0.01 50.0 upflow 1.0 0.0 1
SRSO342 log factor 0.6616 0.01 50.0 upflow 1.0 0.0 1
SRSO343 log factor 0.2347 0.01 50.0 upflow 1.0 0.0 1
SRSO344 log factor 0.2679 0.01 50.0 upflow 1.0 0.0 1
SRSO346 log factor 0.3488 0.01 50.0 upflow 1.0 0.0 1
SRSO347 log factor 0.3628 0.01 50.0 upflow 1.0 0.0 1
SRSO348 log factor 0.337 0.01 50.0 upflow 1.0 0.0 1
SRSO349 log factor 0.3535 0.01 50.0 upflow 1.0 0.0 1
SRSO351 log factor 0.4683 0.01 50.0 upflow 1.0 0.0 1
SRSO352 log factor 0.4272 0.01 50.0 upflow 1.0 0.0 1
SRSO353 log factor 0.4574 0.01 50.0 upflow 1.0 0.0 1
SRSO354 log factor 0.5844 0.01 50.0 upflow 1.0 0.0 1
SRSO355 log factor 3.77 0.01 50.0 upflow 1.0 0.0 1
SRSO360 log factor 3.792 0.01 50.0 upflow 1.0 0.0 1
SRSO365 log factor 8.656 0.01 50.0 upflow 1.0 0.0 1
SRSO370 log factor 1.049 0.01 50.0 upflow 1.0 0.0 1
SRSO375 log factor 7.545 0.01 50.0 upflow 1.0 0.0 1
SRSO380 log factor 4.54 0.01 50.0 upflow 1.0 0.0 1
SRSO385 log factor 1.94 0.01 50.0 upflow 1.0 0.0 1
SRSO390 log factor 0.7033 0.01 50.0 upflow 1.0 0.0 1
SRSO395 log factor 0.6744 0.01 50.0 upflow 1.0 0.0 1
SRSO400 log factor 0.5624 0.01 50.0 upflow 1.0 0.0 1
SRSO405 log factor 0.3754 0.01 50.0 upflow 1.0 0.0 1
SRSO410 log factor 0.7111 0.01 50.0 upflow 1.0 0.0 1
SRSO415 log factor 0.2071 0.01 50.0 upflow 1.0 0.0 1
SRSO440 log factor 3.038 0.01 50.0 upflow 1.0 0.0 1
SRSO445 log factor 3.857 0.01 50.0 upflow 1.0 0.0 1
SRSO450 log factor 0.6473 0.01 50.0 upflow 1.0 0.0 1
SRSO455 log factor 2.308 0.01 50.0 upflow 1.0 0.0 1
SRSO460 log factor 11.65 0.01 50.0 upflow 1.0 0.0 1
SRSO465 log factor 16.23 0.01 50.0 upflow 1.0 0.0 1
SRSO470 log factor 7.505 0.01 50.0 upflow 1.0 0.0 1
SRSO475 log factor 12.2 0.01 50.0 upflow 1.0 0.0 1
SRSO481 log factor 1.15 0.01 50.0 upflow 1.0 0.0 1
SRSO482 log factor 0.7556 0.01 50.0 upflow 1.0 0.0 1
SRSO483 log factor 3.421 0.01 50.0 upflow 1.0 0.0 1
SRSO484 log factor 1.9 0.01 50.0 upflow 1.0 0.0 1
SRSO487 log factor 0.9017 0.01 50.0 upflow 1.0 0.0 1
SRSO489 log factor 1.164 0.01 50.0 upflow 1.0 0.0 1
SRSO491 log factor 0.3229 0.01 50.0 upflow 1.0 0.0 1
SRSO492 log factor 0.5097 0.01 50.0 upflow 1.0 0.0 1
SRSO493 log factor 0.2643 0.01 50.0 upflow 1.0 0.0 1
SRSO494 log factor 0.3672 0.01 50.0 upflow 1.0 0.0 1
SRSO495 log factor 1.371 0.01 50.0 upflow 1.0 0.0 1
SRSO500 log factor 1.408 0.01 50.0 upflow 1.0 0.0 1
SRSO505 log factor 2.917 0.01 50.0 upflow 1.0 0.0 1
SRSO511 log factor 0.1026 0.01 50.0 upflow 1.0 0.0 1
SRSO512 log factor 0.08775 0.01 50.0 upflow 1.0 0.0 1
SRSO513 log factor 3.383 0.01 50.0 upflow 1.0 0.0 1
SRSO514 log factor 3.693 0.01 50.0 upflow 1.0 0.0 1
SRSO516 log factor 0.01 0.01 50.0 upflow 1.0 0.0 1
SRSO517 log factor 0.01896 0.01 50.0 upflow 1.0 0.0 1
SRSO518 log factor 1.697 0.01 50.0 upflow 1.0 0.0 1
SRSO519 log factor 0.5032 0.01 50.0 upflow 1.0 0.0 1
SRSO521 log factor 0.04691 0.01 50.0 upflow 1.0 0.0 1
SRSO522 log factor 0.04692 0.01 50.0 upflow 1.0 0.0 1
SRSO523 log factor 0.7993 0.01 50.0 upflow 1.0 0.0 1
SRSO524 log factor 0.5027 0.01 50.0 upflow 1.0 0.0 1
SRSO526 log factor 0.08655 0.01 50.0 upflow 1.0 0.0 1
SRSO527 log factor 0.08661 0.01 50.0 upflow 1.0 0.0 1
SRSO528 log factor 0.4662 0.01 50.0 upflow 1.0 0.0 1
SRSO529 log factor 0.4563 0.01 50.0 upflow 1.0 0.0 1
SRSO531 log factor 0.1874 0.01 50.0 upflow 1.0 0.0 1
SRSO532 log factor 0.1732 0.01 50.0 upflow 1.0 0.0 1
SRSO533 log factor 0.5393 0.01 50.0 upflow 1.0 0.0 1
SRSO534 log factor 0.5119 0.01 50.0 upflow 1.0 0.0 1
SRSO535 log factor 3.396 0.01 50.0 upflow 1.0 0.0 1
SRSO540 log factor 4.463 0.01 50.0 upflow 1.0 0.0 1
SRSO545 log factor 14.6 0.01 50.0 upflow 1.0 0.0 1
SRSO550 log factor 0.2196 0.01 50.0 upflow 1.0 0.0 1
SRSO560 log factor 0.2124 0.01 50.0 upflow 1.0 0.0 1
SRSO615 log factor 2.812 0.01 50.0 upflow 1.0 0.0 1
SRSO620 log factor 3.338 0.01 50.0 upflow 1.0 0.0 1
SRSO625 log factor 3.489 0.01 50.0 upflow 1.0 0.0 1
SRSO630 log factor 12.69 0.01 50.0 upflow 1.0 0.0 1
SRSO636 log factor 0.6259 0.01 50.0 upflow 1.0 0.0 1
SRSO637 log factor 1.02 0.01 50.0 upflow 1.0 0.0 1
SRSO638 log factor 0.6771 0.01 50.0 upflow 1.0 0.0 1
SRSO641 log factor 0.3027 0.01 50.0 upflow 1.0 0.0 1
SRSO643 log factor 0.2959 0.01 50.0 upflow 1.0 0.0 1
SRSO646 log factor 0.3033 0.01 50.0 upflow 1.0 0.0 1
SRSO648 log factor 0.314 0.01 50.0 upflow 1.0 0.0 1
SRSO649 log factor 0.3024 0.01 50.0 upflow 1.0 0.0 1
SRSO650 log factor 1.252 0.01 50.0 upflow 1.0 0.0 1
SRSO655 log factor 1.181 0.01 50.0 upflow 1.0 0.0 1
SRSO660 log factor 0.8256 0.01 50.0 upflow 1.0 0.0 1
SRSO668 log factor 0.01 0.01 50.0 upflow 1.0 0.0 1
SRSO669 log factor 0.01 0.01 50.0 upflow 1.0 0.0 1
SRSO673 log factor 0.01 0.01 50.0 upflow 1.0 0.0 1
SRSO674 log factor 0.01 0.01 50.0 upflow 1.0 0.0 1
SRSO676 log factor 0.01 0.01 50.0 upflow 1.0 0.0 1
SRSO678 log factor 0.01 0.01 50.0 upflow 1.0 0.0 1
SRSO679 log factor 0.01 0.01 50.0 upflow 1.0 0.0 1
SRSO681 log factor 0.04676 0.01 50.0 upflow 1.0 0.0 1
SRSO682 log factor 0.04736 0.01 50.0 upflow 1.0 0.0 1
SRSO683 log factor 0.04643 0.01 50.0 upflow 1.0 0.0 1
SRSO684 log factor 0.04607 0.01 50.0 upflow 1.0 0.0 1
SRSO686 log factor 0.1123 0.01 50.0 upflow 1.0 0.0 1
SRSO687 log factor 0.1174 0.01 50.0 upflow 1.0 0.0 1
SRSO688 log factor 0.1083 0.01 50.0 upflow 1.0 0.0 1
SRSO689 log factor 0.1144 0.01 50.0 upflow 1.0 0.0 1
SRSO690 log factor 1.861 0.01 50.0 upflow 1.0 0.0 1
SRSO711 log factor 0.4407 0.01 50.0 upflow 1.0 0.0 1
SRSO712 log factor 0.5301 0.01 50.0 upflow 1.0 0.0 1
SRSO713 log factor 0.216 0.01 50.0 upflow 1.0 0.0 1
SRSO714 log factor 0.08385 0.01 50.0 upflow 1.0 0.0 1
SRSO715 log factor 0.08347 0.01 50.0 upflow 1.0 0.0 1
SRSO716 log factor 0.08492 0.01 50.0 upflow 1.0 0.0 1
SRSO717 log factor 0.08519 0.01 50.0 upflow 1.0 0.0 1
SRSO718 log factor 0.08435 0.01 50.0 upflow 1.0 0.0 1
SRSO721 log factor 0.5601 0.01 50.0 upflow 1.0 0.0 1
SRSO722 log factor 0.6278 0.01 50.0 upflow 1.0 0.0 1
SRSO723 log factor 0.2215 0.01 50.0 upflow 1.0 0.0 1
SRSO724 log factor 0.08733 0.01 50.0 upflow 1.0 0.0 1
SRSO725 log factor 0.1049 0.01 50.0 upflow 1.0 0.0 1
SRSO726 log factor 0.1067 0.01 50.0 upflow 1.0 0.0 1
SRSO727 log factor 0.08427 0.01 50.0 upflow 1.0 0.0 1
SRSO728 log factor 0.08287 0.01 50.0 upflow 1.0 0.0 1
SRSO733 log factor 0.3074 0.01 50.0 upflow 1.0 0.0 1
SRSO734 log factor 0.1005 0.01 50.0 upflow 1.0 0.0 1
SRSO735 log factor 0.2036 0.01 50.0 upflow 1.0 0.0 1
SRSO736 log factor 0.2241 0.01 50.0 upflow 1.0 0.0 1
SRSO743 log factor 0.3424 0.01 50.0 upflow 1.0 0.0 1
SRSO744 log factor 0.09955 0.01 50.0 upflow 1.0 0.0 1
SRSO745 log factor 0.1948 0.01 50.0 upflow 1.0 0.0 1
SRSO746 log factor 0.222 0.01 50.0 upflow 1.0 0.0 1
SRSO912 log factor 1.645 0.01 50.0 upflow 1.0 0.0 1
SRSO913 log factor 3.182 0.01 50.0 upflow 1.0 0.0 1
SRSO914 log factor 1.739 0.01 50.0 upflow 1.0 0.0 1
SRSO915 log factor 1.267 0.01 50.0 upflow 1.0 0.0 1
SRSO916 log factor 1.678 0.01 50.0 upflow 1.0 0.0 1
SRSO917 log factor 1.696 0.01 50.0 upflow 1.0 0.0 1
SRSO918 log factor 4.775 0.01 50.0 upflow 1.0 0.0 1
SRSO919 log factor 11.99 0.01 50.0 upflow 1.0 0.0 1
SRSO920 log factor 1.219 0.01 50.0 upflow 1.0 0.0 1
SRSO921 log factor 0.3247 0.01 50.0 upflow 1.0 0.0 1
SRSO922 log factor 0.02201 0.01 50.0 upflow 1.0 0.0 1
SRSO926 log factor 0.04903 0.01 50.0 upflow 1.0 0.0 1
SRSO927 log factor 0.1 0.01 50.0 upflow 1.0 0.0 1
SRSO928 log factor 0.1467 0.01 50.0 upflow 1.0 0.0 1
SRSO929 log factor 0.1632 0.01 50.0 upflow 1.0 0.0 1
SRSO930 log factor 0.1616 0.01 50.0 upflow 1.0 0.0 1
SRSO931 log factor 0.3068 0.01 50.0 upflow 1.0 0.0 1
SRSO932 log factor 3.999 0.01 50.0 upflow 1.0 0.0 1
SRSO953 log factor 1.451 0.01 50.0 upflow 1.0 0.0 1
SRSO954 log factor 22.31 0.01 50.0 upflow 1.0 0.0 1
SRSO955 log factor 22.82 0.01 50.0 upflow 1.0 0.0 1
SRSO956 log factor 2.533 0.01 50.0 upflow 1.0 0.0 1
SRSO957 log factor 0.1079 0.01 50.0 upflow 1.0 0.0 1
SRSO958 log factor 0.221 0.01 50.0 upflow 1.0 0.0 1
SRSO959 log factor 0.2159 0.01 50.0 upflow 1.0 0.0 1
SRSO960 log factor 0.4715 0.01 50.0 upflow 1.0 0.0 1
SRSO961 log factor 1.576 0.01 50.0 upflow 1.0 0.0 1
SRSO962 log factor 1.855 0.01 50.0 upflow 1.0 0.0 1
SRSO963 log factor 0.7457 0.01 50.0 upflow 1.0 0.0 1
SRSO964 log factor 0.02636 0.01 50.0 upflow 1.0 0.0 1
SRSO982 log factor 1.024 0.01 50.0 upflow 1.0 0.0 1
SRSO983 log factor 15.25 0.01 50.0 upflow 1.0 0.0 1
SRSO994 log factor 17.79 0.01 50.0 upflow 1.0 0.0 1
SRSO995 log factor 0.1156 0.01 50.0 upflow 1.0 0.0 1
R1AAeel log factor 1e-15 1e-17 4.5e-12 k1 1.0 0.0 1
R2AAeel log factor 1e-15 1e-17 4.5e-12 k2 1.0 0.0 1
R3AAeel log factor 8e-15 1e-17 3e-12 k3 1.0 0.0 1
R1AA22m log factor 2e-13 1e-17 4.5e-12 k1 1.0 0.0 1
R2AA22m log factor 2e-13 1e-17 4.5e-12 k2 1.0 0.0 1
R3AA22m log factor 1e-14 1e-17 3e-12 k3 1.0 0.0 1
R1AL75g log factor 7e-13 1e-17 4.5e-12 k1 1.0 0.0 1
R2AL75g log factor 5e-13 1e-17 4.5e-12 k2 1.0 0.0 1
R3AL75g log factor 3e-15 1e-17 3e-12 k3 1.0 0.0 1
R1ALeee log factor 1e-15 1e-17 4.5e-12 k1 1.0 0.0 1
R2ALeee log factor 1e-15 1e-17 4.5e-12 k2 1.0 0.0 1
R3ALeee log factor 1e-15 1e-17 3e-12 k3 1.0 0.0 1
R1ALkkf log factor 7e-15 1e-17 4.5e-12 k1 1.0 0.0 1
R2ALkkf log factor 7e-15 1e-17 4.5e-12 k2 1.0 0.0 1
R3ALkkf log factor 2e-15 1e-17 3e-12 k3 1.0 0.0 1
R1BBffh log factor 2e-15 1e-17 4.5e-12 k1 1.0 0.0 1
R2BBffh log factor 2e-15 1e-17 4.5e-12 k2 1.0 0.0 1
R3BBffh log factor 4e-15 1e-17 3e-12 k3 1.0 0.0 1
R1BBmme log factor 1e-14 1e-17 4.5e-12 k1 1.0 0.0 1
R2BBmme log factor 1e-14 1e-17 4.5e-12 k2 1.0 0.0 1
R3BBmme log factor 1e-15 1e-17 3e-12 k3 1.0 0.0 1
R1CBmme log factor 1e-14 1e-17 4.5e-12 k1 1.0 0.0 1
R2CBmme log factor 1e-14 1e-17 4.5e-12 k2 1.0 0.0 1
R3CBmme log factor 1e-15 1e-17 3e-12 k3 1.0 0.0 1
R1CR75g log factor 7e-13 1e-17 4.5e-12 k1 1.0 0.0 1
R2CR75g log factor 5e-13 1e-17 4.5e-12 k2 1.0 0.0 1
R3CR75g log factor 3e-15 1e-17 3e-12 k3 1.0 0.0 1
R1CR75s log factor 7e-13 1e-17 4.5e-12 k1 1.0 0.0 1
R2CR75s log factor 5e-13 1e-17 4.5e-12 k2 1.0 0.0 1
R3CR75s log factor 5e-14 1e-17 3e-12 k3 1.0 0.0 1
R1CRkkf log factor 7e-15 1e-17 4.5e-12 k1 1.0 0.0 1
R2CRkkf log factor 7e-15 1e-17 4.5e-12 k2 1.0 0.0 1
R3CRkkf log factor 2e-15 1e-17 3e-12 k3 1.0 0.0 1
R1CRssf log factor 5e-14 1e-17 4.5e-12 k1 1.0 0.0 1
R2CRssf log factor 5e-14 1e-17 4.5e-12 k2 1.0 0.0 1
R3CRssf log factor 2e-15 1e-17 3e-12 k3 1.0 0.0 1
R1GWbba log factor 2.5e-16 1e-17 4.5e-12 k1 1.0 0.0 1
R2GWbba log factor 2.5e-16 1e-17 4.5e-12 k2 1.0 0.0 1
R3GWbba log factor 1e-16 1e-17 3e-12 k3 1.0 0.0 1
R1GWbbb log factor 2.5e-16 1e-17 4.5e-12 k1 1.0 0.0 1
R2GWbbb log factor 2.5e-16 1e-17 4.5e-12 k2 1.0 0.0 1
R3GWbbb log factor 2.5e-16 1e-17 3e-12 k3 1.0 0.0 1
R1GWbbc log factor 2.5e-16 1e-17 4.5e-12 k1 1.0 0.0 1
R2GWbbc log factor 2.5e-16 1e-17 4.5e-12 k2 1.0 0.0 1
R3GWbbc log factor 5e-16 1e-17 3e-12 k3 1.0 0.0 1
R1GWbbd log factor 2.5e-16 1e-17 4.5e-12 k1 1.0 0.0 1
R2GWbbd log factor 2.5e-16 1e-17 4.5e-12 k2 1.0 0.0 1
R3GWbbd log factor 7.5e-16 1e-17 3e-12 k3 1.0 0.0 1
R1GWbbe log factor 2.5e-16 1e-17 4.5e-12 k1 1.0 0.0 1
R2GWbbe log factor 2.5e-16 1e-17 4.5e-12 k2 1.0 0.0 1
R3GWbbe log factor 1e-15 1e-17 3e-12 k3 1.0 0.0 1
R1GWbbv log factor 2.5e-16 1e-17 4.5e-12 k1 1.0 0.0 1
R2GWbbv log factor 2.5e-16 1e-17 4.5e-12 k2 1.0 0.0 1
R3GWbbv log factor 1.5e-16 1e-17 3e-12 k3 1.0 0.0 1
R1GWccb log factor 5e-16 1e-17 4.5e-12 k1 1.0 0.0 1
R2GWccb log factor 5e-16 1e-17 4.5e-12 k2 1.0 0.0 1
R3GWccb log factor 2.5e-16 1e-17 3e-12 k3 1.0 0.0 1
R1GWccc log factor 5e-16 1e-17 4.5e-12 k1 1.0 0.0 1
R2GWccc log factor 5e-16 1e-17 4.5e-12 k2 1.0 0.0 1
R3GWccc log factor 5e-16 1e-17 3e-12 k3 1.0 0.0 1
R1GWccf log factor 5e-16 1e-17 4.5e-12 k1 1.0 0.0 1
R2GWccf log factor 5e-16 1e-17 4.5e-12 k2 1.0 0.0 1
R3GWccf log factor 2e-15 1e-17 3e-12 k3 1.0 0.0 1
R1GWcch log factor 5e-16 1e-17 4.5e-12 k1 1.0 0.0 1
R2GWcch log factor 5e-16 1e-17 4.5e-12 k2 1.0 0.0 1
R3GWcch log factor 4e-15 1e-17 3e-12 k3 1.0 0.0 1
R1GWccv log factor 5e-16 1e-17 4.5e-12 k1 1.0 0.0 1
R2GWccv log factor 5e-16 1e-17 4.5e-12 k2 1.0 0.0 1
R3GWccv log factor 1.5e-16 1e-17 3e-12 k3 1.0 0.0 1
R1GWvvb log factor 1.5e-16 1e-17 4.5e-12 k1 1.0 0.0 1
R2GWvvb log factor 1.5e-16 1e-17 4.5e-12 k2 1.0 0.0 1
R3GWvvb log factor 2.5e-16 1e-17 3e-12 k3 1.0 0.0 1
R1GWvvc log factor 1.5e-16 1e-17 4.5e-12 k1 1.0 0.0 1
R2GWvvc log factor 1.5e-16 1e-17 4.5e-12 k2 1.0 0.0 1
R3GWvvc log factor 5e-16 1e-17 3e-12 k3 1.0 0.0 1
R1GWvvd log factor 1.5e-16 1e-17 4.5e-12 k1 1.0 0.0 1
R2GWvvd log factor 1.5e-16 1e-17 4.5e-12 k2 1.0 0.0 1
R3GWvvd log factor 7.5e-16 1e-17 3e-12 k3 1.0 0.0 1
R1GWvvf log factor 1.5e-16 1e-17 4.5e-12 k1 1.0 0.0 1
R2GWvvf log factor 1.5e-16 1e-17 4.5e-12 k2 1.0 0.0 1
R3GWvvf log factor 2e-15 1e-17 3e-12 k3 1.0 0.0 1
R1GWvvh log factor 1.5e-16 1e-17 4.5e-12 k1 1.0 0.0 1
R2GWvvh log factor 1.5e-16 1e-17 4.5e-12 k2 1.0 0.0 1
R3GWvvh log factor 4e-15 1e-17 3e-12 k3 1.0 0.0 1
R1GWvvw log factor 1.5e-16 1e-17 4.5e-12 k1 1.0 0.0 1
R2GWvvw log factor 1.5e-16 1e-17 4.5e-12 k2 1.0 0.0 1
R3GWvvw log factor 7e-17 1e-17 3e-12 k3 1.0 0.0 1
R1HFccb log factor 5e-16 1e-17 4.5e-12 k1 1.0 0.0 1
R2HFccb log factor 5e-16 1e-17 4.5e-12 k2 1.0 0.0 1
R3HFccb log factor 2.5e-16 1e-17 3e-12 k3 1.0 0.0 1
R1HFccc log factor 5e-16 1e-17 4.5e-12 k1 1.0 0.0 1
R2HFccc log factor 5e-16 1e-17 4.5e-12 k2 1.0 0.0 1
R3HFccc log factor 5e-16 1e-17 3e-12 k3 1.0 0.0 1
R1HFcce log factor 5e-16 1e-17 4.5e-12 k1 1.0 0.0 1
R2HFcce log factor 5e-16 1e-17 4.5e-12 k2 1.0 0.0 1
R3HFcce log factor 1e-15 1e-17 3e-12 k3 1.0 0.0 1
R1HFccf log factor 5e-16 1e-17 4.5e-12 k1 1.0 0.0 1
R2HFccf log factor 5e-16 1e-17 4.5e-12 k2 1.0 0.0 1
R3HFccf log factor 2e-15 1e-17 3e-12 k3 1.0 0.0 1
R1HFddb log factor 7.5e-16 1e-17 4.5e-12 k1 1.0 0.0 1
R2HFddb log factor 7.5e-16 1e-17 4.5e-12 k2 1.0 0.0 1
R3HFddb log factor 2.5e-16 1e-17 3e-12 k3 1.0 0.0 1
R1HFddc log factor 7.5e-16 1e-17 4.5e-12 k1 1.0 0.0 1
R2HFddc log factor 7.5e-16 1e-17 4.5e-12 k2 1.0 0.0 1
R3HFddc log factor 5e-16 1e-17 3e-12 k3 1.0 0.0 1
R1HFddd log factor 7.5e-16 1e-17 4.5e-12 k1 1.0 0.0 1
R2HFddd log factor 7.5e-16 1e-17 4.5e-12 k2 1.0 0.0 1
R3HFddd log factor 7.5e-16 1e-17 3e-12 k3 1.0 0.0 1
R1HFeec log factor 1e-15 1e-17 4.5e-12 k1 1.0 0.0 1
R2HFeec log factor 1e-15 1e-17 4.5e-12 k2 1.0 0.0 1
R3HFeec log factor 5e-16 1e-17 3e-12 k3 1.0 0.0 1
R1HFeee log factor 1e-15 1e-17 4.5e-12 k1 1.0 0.0 1
R2HFeee log factor 1e-15 1e-17 4.5e-12 k2 1.0 0.0 1
R3HFeee log factor 1e-15 1e-17 3e-12 k3 1.0 0.0 1
R1HFjjg log factor 6e-15 1e-17 4.5e-12 k1 1.0 0.0 1
R2HFjjg log factor 6e-15 1e-17 4.5e-12 k2 1.0 0.0 1
R3HFjjg log factor 3e-15 1e-17 3e-12 k3 1.0 0.0 1
R1HFkkf log factor 7e-15 1e-17 4.5e-12 k1 1.0 0.0 1
R2HFkkf log factor 7e-15 1e-17 4.5e-12 k2 1.0 0.0 1
R3HFkkf log factor 2e-15 1e-17 3e-12 k3 1.0 0.0 1
R1HFmme log factor 1e-14 1e-17 4.5e-12 k1 1.0 0.0 1
R2HFmme log factor 1e-14 1e-17 4.5e-12 k2 1.0 0.0 1
R3HFmme log factor 1e-15 1e-17 3e-12 k3 1.0 0.0 1
R1HFmmf log factor 1e-14 1e-17 4.5e-12 k1 1.0 0.0 1
R2HFmmf log factor 1e-14 1e-17 4.5e-12 k2 1.0 0.0 1
R3HFmmf log factor 2e-15 1e-17 3e-12 k3 1.0 0.0 1
R1IIeee log factor 1e-15 1e-17 4.5e-12 k1 1.0 0.0 1
R2IIeee log factor 1e-15 1e-17 4.5e-12 k2 1.0 0.0 1
R3IIeee log factor 1e-15 1e-17 3e-12 k3 1.0 0.0 1
R1IIeeg log factor 1e-15 1e-17 4.5e-12 k1 1.0 0.0 1
R2IIeeg log factor 1e-15 1e-17 4.5e-12 k2 1.0 0.0 1
R3IIeeg log factor 3e-15 1e-17 3e-12 k3 1.0 0.0 1
R1IIiif log factor 5e-15 1e-17 4.5e-12 k1 1.0 0.0 1
R2IIiif log factor 5e-15 1e-17 4.5e-12 k2 1.0 0.0 1
R3IIiif log factor 2e-15 1e-17 3e-12 k3 1.0 0.0 1
R1K2ddc log factor 7.5e-16 1e-17 4.5e-12 k1 1.0 0.0 1
R2K2ddc log factor 7.5e-16 1e-17 4.5e-12 k2 1.0 0.0 1
R3K2ddc log factor 5e-16 1e-17 3e-12 k3 1.0 0.0 1
R1K2eee log factor 1e-15 1e-17 4.5e-12 k1 1.0 0.0 1
R2K2eee log factor 1e-15 1e-17 4.5e-12 k2 1.0 0.0 1
R3K2eee log factor 1e-15 1e-17 3e-12 k3 1.0 0.0 1
R1K2ssi log factor 5e-14 1e-17 4.5e-12 k1 1.0 0.0 1
R2K2ssi log factor 5e-14 1e-17 4.5e-12 k2 1.0 0.0 1
R3K2ssi log factor 5e-15 1e-17 3e-12 k3 1.0 0.0 1
R1K211u log factor 1e-13 1e-17 4.5e-12 k1 1.0 0.0 1
R2K211u log factor 1e-13 1e-17 4.5e-12 k2 1.0 0.0 1
R3K211u log factor 8e-14 1e-17 3e-12 k3 1.0 0.0 1
R1K299s log factor 9e-13 1e-17 4.5e-12 k1 1.0 0.0 1
R2K299s log factor 9e-13 1e-17 4.5e-12 k2 1.0 0.0 1
R3K299s log factor 5e-14 1e-17 3e-12 k3 1.0 0.0 1
R1Ka02m log factor 1e-12 1e-17 4.5e-12 k1 1.0 0.0 1
R2Ka02m log factor 2e-13 1e-17 4.5e-12 k2 1.0 0.0 1
R3Ka02m log factor 1e-14 1e-17 3e-12 k3 1.0 0.0 1
R1Ka05m log factor 1e-12 1e-17 4.5e-12 k1 1.0 0.0 1
R2Ka05m log factor 5e-13 1e-17 4.5e-12 k2 1.0 0.0 1
R3Ka05m log factor 1e-14 1e-17 3e-12 k3 1.0 0.0 1
R1Ka05o log factor 1e-12 1e-17 4.5e-12 k1 1.0 0.0 1
R2Ka05o log factor 5e-13 1e-17 4.5e-12 k2 1.0 0.0 1
R3Ka05o log factor 2e-14 1e-17 3e-12 k3 1.0 0.0 1
R1Ka11m log factor 1e-13 1e-17 4.5e-12 k1 1.0 0.0 1
R2Ka11m log factor 1e-13 1e-17 4.5e-12 k2 1.0 0.0 1
R3Ka11m log factor 1e-14 1e-17 3e-12 k3 1.0 0.0 1
R1Ka11o log factor 1e-13 1e-17 4.5e-12 k1 1.0 0.0 1
R2Ka11o log factor 1e-13 1e-17 4.5e-12 k2 1.0 0.0 1
R3Ka11o log factor 2e-14 1e-17 3e-12 k3 1.0 0.0 1
R1Ka13f log factor 1e-13 1e-17 4.5e-12 k1 1.0 0.0 1
R2Ka13f log factor 3e-13 1e-17 4.5e-12 k2 1.0 0.0 1
R3Ka13f log factor 2e-15 1e-17 3e-12 k3 1.0 0.0 1
R1Ka22m log factor 2e-13 1e-17 4.5e-12 k1 1.0 0.0 1
R2Ka22m log factor 2e-13 1e-17 4.5e-12 k2 1.0 0.0 1
R3Ka22m log factor 1e-14 1e-17 3e-12 k3 1.0 0.0 1
R1Ka41g log factor 4e-13 1e-17 4.5e-12 k1 1.0 0.0 1
R2Ka41g log factor 1e-13 1e-17 4.5e-12 k2 1.0 0.0 1
R3Ka41g log factor 3e-15 1e-17 3e-12 k3 1.0 0.0 1
R1Ka41o log factor 4e-13 1e-17 4.5e-12 k1 1.0 0.0 1
R2Ka41o log factor 1e-13 1e-17 4.5e-12 k2 1.0 0.0 1
R3Ka41o log factor 2e-14 1e-17 3e-12 k3 1.0 0.0 1
R1Ka43f log factor 4e-13 1e-17 4.5e-12 k1 1.0 0.0 1
R2Ka43f log factor 3e-13 1e-17 4.5e-12 k2 1.0 0.0 1
R3Ka43f log factor 2e-15 1e-17 3e-12 k3 1.0 0.0 1
R1Ka43k log factor 4e-13 1e-17 4.5e-12 k1 1.0 0.0 1
R2Ka43k log factor 3e-13 1e-17 4.5e-12 k2 1.0 0.0 1
R3Ka43k log factor 7e-15 1e-17 3e-12 k3 1.0 0.0 1
R1Ka44p log factor 4e-13 1e-17 4.5e-12 k1 1.0 0.0 1
R2Ka44p log factor 4e-13 1e-17 4.5e-12 k2 1.0 0.0 1
R3Ka44p log factor 2.5e-14 1e-17 3e-12 k3 1.0 0.0 1
R1Ka63o log factor 6e-13 1e-17 4.5e-12 k1 1.0 0.0 1
R2Ka63o log factor 3e-13 1e-17 4.5e-12 k2 1.0 0.0 1
R3Ka63o log factor 2e-14 1e-17 3e-12 k3 1.0 0.0 1
R1Ka66q log factor 6e-13 1e-17 4.5e-12 k1 1.0 0.0 1
R2Ka66q log factor 6e-13 1e-17 4.5e-12 k2 1.0 0.0 1
R3Ka66q log factor 3e-14 1e-17 3e-12 k3 1.0 0.0 1
R1Ka99m log factor 9e-13 1e-17 4.5e-12 k1 1.0 0.0 1
R2Ka99m log factor 9e-13 1e-17 4.5e-12 k2 1.0 0.0 1
R3Ka99m log factor 1e-14 1e-17 3e-12 k3 1.0 0.0 1
R1Ka99o log factor 9e-13 1e-17 4.5e-12 k1 1.0 0.0 1
R2Ka99o log factor 9e-13 1e-17 4.5e-12 k2 1.0 0.0 1
R3Ka99o log factor 2e-14 1e-17 3e-12 k3 1.0 0.0 1
R1Ka99s log factor 9e-13 1e-17 4.5e-12 k1 1.0 0.0 1
R2Ka99s log factor 9e-13 1e-17 4.5e-12 k2 1.0 0.0 1
R3Ka99s log factor 5e-14 1e-17 3e-12 k3 1.0 0.0 1
R1Kaddc log factor 7.5e-16 1e-17 4.5e-12 k1 1.0 0.0 1
R2Kaddc log factor 7.5e-16 1e-17 4.5e-12 k2 1.0 0.0 1
R3Kaddc log factor 5e-16 1e-17 3e-12 k3 1.0 0.0 1
R1Kaddd log factor 7.5e-16 1e-17 4.5e-12 k1 1.0 0.0 1
R2Kaddd log factor 7.5e-16 1e-17 4.5e-12 k2 1.0 0.0 1
R3Kaddd log factor 7.5e-16 1e-17 3e-12 k3 1.0 0.0 1
R1Kadde log factor 7.5e-16 1e-17 4.5e-12 k1 1.0 0.0 1
R2Kadde log factor 7.5e-16 1e-17 4.5e-12 k2 1.0 0.0 1
R3Kadde log factor 1e-15 1e-17 3e-12 k3 1.0 0.0 1
R1Kaddk log factor 7.5e-16 1e-17 4.5e-12 k1 1.0 0.0 1
R2Kaddk log factor 7.5e-16 1e-17 4.5e-12 k2 1.0 0.0 1
R3Kaddk log factor 7e-15 1e-17 3e-12 k3 1.0 0.0 1
R1Kaeee log factor 1e-15 1e-17 4.5e-12 k1 1.0 0.0 1
R2Kaeee log factor 1e-15 1e-17 4.5e-12 k2 1.0 0.0 1
R3Kaeee log factor 1e-15 1e-17 3e-12 k3 1.0 0.0 1
R1Kaiie log factor 5e-15 1e-17 4.5e-12 k1 1.0 0.0 1
R2Kaiie log factor 5e-15 1e-17 4.5e-12 k2 1.0 0.0 1
R3Kaiie log factor 1e-15 1e-17 3e-12 k3 1.0 0.0 1
R1Kajjc log factor 6e-15 1e-17 4.5e-12 k1 1.0 0.0 1
R2Kajjc log factor 6e-15 1e-17 4.5e-12 k2 1.0 0.0 1
R3Kajjc log factor 5e-16 1e-17 3e-12 k3 1.0 0.0 1
R1Kajjg log factor 6e-15 1e-17 4.5e-12 k1 1.0 0.0 1
R2Kajjg log factor 6e-15 1e-17 4.5e-12 k2 1.0 0.0 1
R3Kajjg log factor 3e-15 1e-17 3e-12 k3 1.0 0.0 1
R1Kakkf log factor 7e-15 1e-17 4.5e-12 k1 1.0 0.0 1
R2Kakkf log factor 7e-15 1e-17 4.5e-12 k2 1.0 0.0 1
R3Kakkf log factor 2e-15 1e-17 3e-12 k3 1.0 0.0 1
R1Kammc log factor 1e-14 1e-17 4.5e-12 k1 1.0 0.0 1
R2Kammc log factor 1e-14 1e-17 4.5e-12 k2 1.0 0.0 1
R3Kammc log factor 5e-16 1e-17 3e-12 k3 1.0 0.0 1
R1Kamme log factor 1e-14 1e-17 4.5e-12 k1 1.0 0.0 1
R2Kamme log factor 1e-14 1e-17 4.5e-12 k2 1.0 0.0 1
R3Kamme log factor 1e-15 1e-17 3e-12 k3 1.0 0.0 1
R1Kammg log factor 1e-14 1e-17 4.5e-12 k1 1.0 0.0 1
R2Kammg log factor 1e-14 1e-17 4.5e-12 k2 1.0 0.0 1
R3Kammg log factor 3e-15 1e-17 3e-12 k3 1.0 0.0 1
R1Kassi log factor 5e-14 1e-17 4.5e-12 k1 1.0 0.0 1
R2Kassi log factor 5e-14 1e-17 4.5e-12 k2 1.0 0.0 1
R3Kassi log factor 5e-15 1e-17 3e-12 k3 1.0 0.0 1
R1Kassm log factor 5e-14 1e-17 4.5e-12 k1 1.0 0.0 1
R2Kassm log factor 5e-14 1e-17 4.5e-12 k2 1.0 0.0 1
R3Kassm log factor 1e-14 1e-17 3e-12 k3 1.0 0.0 1
R1Kassq log factor 5e-14 1e-17 4.5e-12 k1 1.0 0.0 1
R2Kassq log factor 5e-14 1e-17 4.5e-12 k2 1.0 0.0 1
R3Kassq log factor 3e-14 1e-17 3e-12 k3 1.0 0.0 1
R1Kaxxm log factor 1.2e-12 1e-17 4.5e-12 k1 1.0 0.0 1
R2Kaxxm log factor 1.2e-12 1e-17 4.5e-12 k2 1.0 0.0 1
R3Kaxxm log factor 1e-14 1e-17 3e-12 k3 1.0 0.0 1
R1Kaxxo log factor 1.2e-12 1e-17 4.5e-12 k1 1.0 0.0 1
R2Kaxxo log factor 1.2e-12 1e-17 4.5e-12 k2 1.0 0.0 1
R3Kaxxo log factor 2e-14 1e-17 3e-12 k3 1.0 0.0 1
R1Kaxxq log factor 1.2e-12 1e-17 4.5e-12 k1 1.0 0.0 1
R2Kaxxq log factor 1.2e-12 1e-17 4.5e-12 k2 1.0 0.0 1
R3Kaxxq log factor 3e-14 1e-17 3e-12 k3 1.0 0.0 1
R1Kaxxu log factor 1.2e-12 1e-17 4.5e-12 k1 1.0 0.0 1
R2Kaxxu log factor 1.2e-12 1e-17 4.5e-12 k2 1.0 0.0 1
R3Kaxxu log factor 8e-14 1e-17 3e-12 k3 1.0 0.0 1
R1Kaxxs log factor 1.2e-12 1e-17 4.5e-12 k1 1.0 0.0 1
R2Kaxxs log factor 1.2e-12 1e-17 4.5e-12 k2 1.0 0.0 1
R3Kaxxs log factor 5e-14 1e-17 3e-12 k3 1.0 0.0 1
R1Kayys log factor 2.2e-12 1e-17 4.5e-12 k1 1.0 0.0 1
R2Kayys log factor 2.2e-12 1e-17 4.5e-12 k2 1.0 0.0 1
R3Kayys log factor 5e-14 1e-17 3e-12 k3 1.0 0.0 1
R1Kazzs log factor 3e-12 1e-17 4.5e-12 k1 1.0 0.0 1
R2Kazzs log factor 3e-12 1e-17 4.5e-12 k2 1.0 0.0 1
R3Kazzs log factor 5e-14 1e-17 3e-12 k3 1.0 0.0 1
R1Kazzy log factor 3e-12 1e-17 4.5e-12 k1 1.0 0.0 1
R2Kazzy log factor 3e-12 1e-17 4.5e-12 k2 1.0 0.0 1
R3Kazzy log factor 2e-12 1e-17 3e-12 k3 1.0 0.0 1
R1Kb11s log factor 1e-13 1e-17 4.5e-12 k1 1.0 0.0 1
R2Kb11s log factor 1e-13 1e-17 4.5e-12 k2 1.0 0.0 1
R3Kb11s log factor 5e-14 1e-17 3e-12 k3 1.0 0.0 1
R1Kb551 log factor 5e-13 1e-17 4.5e-12 k1 1.0 0.0 1
R2Kb551 log factor 5e-13 1e-17 4.5e-12 k2 1.0 0.0 1
R3Kb551 log factor 1e-13 1e-17 3e-12 k3 1.0 0.0 1
R1Kb552 log factor 5e-13 1e-17 4.5e-12 k1 1.0 0.0 1
R2Kb552 log factor 5e-13 1e-17 4.5e-12 k2 1.0 0.0 1
R3Kb552 log factor 2e-13 1e-17 3e-12 k3 1.0 0.0 1
R1Kb55q log factor 5e-13 1e-17 4.5e-12 k1 1.0 0.0 1
R2Kb55q log factor 5e-13 1e-17 4.5e-12 k2 1.0 0.0 1
R3Kb55q log factor 3e-14 1e-17 3e-12 k3 1.0 0.0 1
R1Kb882 log factor 8e-13 1e-17 4.5e-12 k1 1.0 0.0 1
R2Kb882 log factor 8e-13 1e-17 4.5e-12 k2 1.0 0.0 1
R3Kb882 log factor 2e-13 1e-17 3e-12 k3 1.0 0.0 1
R1Kbmmg log factor 1e-14 1e-17 4.5e-12 k1 1.0 0.0 1
R2Kbmmg log factor 1e-14 1e-17 4.5e-12 k2 1.0 0.0 1
R3Kbmmg log factor 3e-15 1e-17 3e-12 k3 1.0 0.0 1
R1Kbssq log factor 5e-14 1e-17 4.5e-12 k1 1.0 0.0 1
R2Kbssq log factor 5e-14 1e-17 4.5e-12 k2 1.0 0.0 1
R3Kbssq log factor 3e-14 1e-17 3e-12 k3 1.0 0.0 1
R1Kbxx2 log factor 1.2e-12 1e-17 4.5e-12 k1 1.0 0.0 1
R2Kbxx2 log factor 1.2e-12 1e-17 4.5e-12 k2 1.0 0.0 1
R3Kbxx2 log factor 2e-13 1e-17 3e-12 k3 1.0 0.0 1
R1MH11i log factor 1e-13 1e-17 4.5e-12 k1 1.0 0.0 1
R2MH11i log factor 1e-13 1e-17 4.5e-12 k2 1.0 0.0 1
R3MH11i log factor 5e-15 1e-17 3e-12 k3 1.0 0.0 1
R1MH44s log factor 4e-13 1e-17 4.5e-12 k1 1.0 0.0 1
R2MH44s log factor 4e-13 1e-17 4.5e-12 k2 1.0 0.0 1
R3MH44s log factor 5e-14 1e-17 3e-12 k3 1.0 0.0 1
R1MHccb log factor 5e-16 1e-17 4.5e-12 k1 1.0 0.0 1
R2MHccb log factor 5e-16 1e-17 4.5e-12 k2 1.0 0.0 1
R3MHccb log factor 2.5e-16 1e-17 3e-12 k3 1.0 0.0 1
R1MHddc log factor 7.5e-16 1e-17 4.5e-12 k1 1.0 0.0 1
R2MHddc log factor 7.5e-16 1e-17 4.5e-12 k2 1.0 0.0 1
R3MHddc log factor 5e-16 1e-17 3e-12 k3 1.0 0.0 1
R1MHddd log factor 7.5e-16 1e-17 4.5e-12 k1 1.0 0.0 1
R2MHddd log factor 7.5e-16 1e-17 4.5e-12 k2 1.0 0.0 1
R3MHddd log factor 7.5e-16 1e-17 3e-12 k3 1.0 0.0 1
R1MHiie log factor 5e-15 1e-17 4.5e-12 k1 1.0 0.0 1
R2MHiie log factor 5e-15 1e-17 4.5e-12 k2 1.0 0.0 1
R3MHiie log factor 1e-15 1e-17 3e-12 k3 1.0 0.0 1
R1MHkkf log factor 7e-15 1e-17 4.5e-12 k1 1.0 0.0 1
R2MHkkf log factor 7e-15 1e-17 4.5e-12 k2 1.0 0.0 1
R3MHkkf log factor 2e-15 1e-17 3e-12 k3 1.0 0.0 1
R1MHmme log factor 1e-14 1e-17 4.5e-12 k1 1.0 0.0 1
R2MHmme log factor 1e-14 1e-17 4.5e-12 k2 1.0 0.0 1
R3MHmme log factor 1e-15 1e-17 3e-12 k3 1.0 0.0 1
R1NAssf log factor 5e-14 1e-17 4.5e-12 k1 1.0 0.0 1
R2NAssf log factor 5e-14 1e-17 4.5e-12 k2 1.0 0.0 1
R3NAssf log factor 2e-15 1e-17 3e-12 k3 1.0 0.0 1
R1NA11l log factor 1e-13 1e-17 4.5e-12 k1 1.0 0.0 1
R2NA11l log factor 1e-13 1e-17 4.5e-12 k2 1.0 0.0 1
R3NA11l log factor 8e-15 1e-17 3e-12 k3 1.0 0.0 1
R1OF75g log factor 7e-13 1e-17 4.5e-12 k1 1.0 0.0 1